------- AERODYN v15.03.* INPUT FILE ------------------------------------------------
AeroDyn15 primary input file, created from Blade2OpenFAST.py on 03-Aug-2025 02:25:01
======  General Options  ============================================================================
False         Echo               - Echo the input to "<rootname>.AD.ech"?  (flag)
"default"     DTAero             - Time interval for aerodynamic calculations {or "default"} (s)
          0   WakeMod            - Type of wake/induction model (switch) {0=none, 1=BEMT, 2=DBEMT, 3=OLAF} [WakeMod cannot be 2 or 3 when linearizing]
          1   AFAeroMod          - Type of blade airfoil aerodynamics model (switch) {1=steady model, 2=Beddoes-Leishman unsteady model} [AFAeroMod must be 1 when linearizing]
          0   TwrPotent          - Type tower influence on wind based on potential flow around the tower (switch) {0=none, 1=baseline potential flow, 2=potential flow with Bak correction}
          0   TwrShadow          - Calculate tower influence on wind based on downstream tower shadow (switch) {0=none, 1=Powles model, 2=Eames model}
False          TwrAero            - Calculate tower aerodynamic loads? (flag)
False         FrozenWake         - Assume frozen wake during linearization? (flag) [used only when WakeMod=1 and when linearizing]
False         CavitCheck         - Perform cavitation check? (flag) [AFAeroMod must be 1 when CavitCheck=true]
False         Buoyancy           - Include buoyancy effects? (flag)
False         CompAA             - Flag to compute AeroAcoustics calculation [used only when WakeMod = 1 or 2]
"unused"      AA_InputFile       - AeroAcoustics input file [used only when CompAA=true]
======  Environmental Conditions  ===================================================================
"default"              AirDens     - Air density (kg/m^3)
"default"              KinVisc     - Kinematic air viscosity (m^2/s)
"default"              SpdSound    - Speed of sound (m/s)
"default"              Patm        - Atmospheric pressure (Pa) [used only when CavitCheck=True]
"default"              Pvap        - Vapour pressure of fluid (Pa) [used only when CavitCheck=True]
======  Blade-Element/Momentum Theory Options  ====================================================== [unused when WakeMod=0 or 3]
          1   SkewMod            - Type of skewed-wake correction model (switch) {1=uncoupled, 2=Pitt/Peters, 3=coupled} [unused when WakeMod=0 or 3]
"default"     SkewModFactor      - Constant used in Pitt/Peters skewed wake model {or "default" is 15/32*pi} (-) [used only when SkewMod=2; unused when WakeMod=0 or 3]
False          TipLoss            - Use the Prandtl tip-loss model? (flag) [unused when WakeMod=0 or 3]
False          HubLoss            - Use the Prandtl hub-loss model? (flag) [unused when WakeMod=0 or 3]
True          TanInd             - Include tangential induction in BEMT calculations? (flag) [unused when WakeMod=0 or 3]
True          AIDrag             - Include the drag term in the axial-induction calculation? (flag) [unused when WakeMod=0 or 3]
True          TIDrag             - Include the drag term in the tangential-induction calculation? (flag) [unused when WakeMod=0,3 or TanInd=FALSE]
0.0001     IndToler           - Convergence tolerance for BEMT nonlinear solve residual equation or "default" (-) [unused when WakeMod=0 or 3]
        500   MaxIter            - Maximum number of iteration steps (-) [unused when WakeMod=0]
======  Dynamic Blade-Element/Momentum Theory Options  ============================================== [used only when WakeMod=2]
          2   DBEMT_Mod          - Type of dynamic BEMT (DBEMT) model {1=constant tau1, 2=time-dependent tau1} (-) [used only when WakeMod=2]
      29.03   tau1_const         - Time constant for DBEMT (s) [used only when WakeMod=2 and DBEMT_Mod=1]
======  OLAF -- cOnvecting LAgrangian Filaments (Free Vortex Wake) Theory Options  ================== [used only when WakeMod=3]
"unused"      OLAFInputFileName  - Input file for OLAF [used only when WakeMod=3]
======  Beddoes-Leishman Unsteady Airfoil Aerodynamics Options  ===================================== [used only when AFAeroMod=2]
          5   UAMod              - Unsteady Aero Model Switch (switch) {1=Baseline model (Original), 2=Gonzalez's variant (changes in Cn,Cc,Cm), 3=Minnema/Pierce variant (changes in Cc and Cm)} [used only when AFAeroMod=2]
True          FLookup            - Flag to indicate whether a lookup for f' will be calculated (TRUE) or whether best-fit exponential equations will be used (FALSE); if FALSE S1-S4 must be provided in airfoil input files (flag) [used only when AFAeroMod=2]
0.1           UAStartRad  - Starting radius for dynamic stall (fraction of rotor radius) [used only when AFAeroMod=2]
0.95           UAEndRad    - Ending radius for dynamic stall (fraction of rotor radius) [used only when AFAeroMod=2]
======  Airfoil Information =========================================================================
1                      AFTabMod    - Interpolation method for multiple airfoil tables [1=1D interpolation on AoA (first table only); 2=2D interpolation on AoA and Re; 3=2D interpolation on AoA and UserProp] (-)
1                      InCol_Alfa  - The column in the airfoil tables that contains the angle of attack (-)
2                      InCol_Cl    - The column in the airfoil tables that contains the lift coefficient (-)
3                      InCol_Cd    - The column in the airfoil tables that contains the drag coefficient (-)
4                      InCol_Cm    - The column in the airfoil tables that contains the pitching-moment coefficient; use zero if there is no Cm column (-)
0                      InCol_Cpmin - The column in the airfoil tables that contains the Cpmin coefficient; use zero if there is no Cpmin column (-)
         57                      NumAFfiles  - Number of airfoil files used (-)
"Airfoils/Polars01.dat"   AFNames            - Airfoil file names (57 lines) (quoted strings)
"Airfoils/Polars02.dat"
"Airfoils/Polars03.dat"
"Airfoils/Polars04.dat"
"Airfoils/Polars05.dat"
"Airfoils/Polars06.dat"
"Airfoils/Polars07.dat"
"Airfoils/Polars08.dat"
"Airfoils/Polars09.dat"
"Airfoils/Polars10.dat"
"Airfoils/Polars11.dat"
"Airfoils/Polars12.dat"
"Airfoils/Polars13.dat"
"Airfoils/Polars14.dat"
"Airfoils/Polars15.dat"
"Airfoils/Polars16.dat"
"Airfoils/Polars17.dat"
"Airfoils/Polars18.dat"
"Airfoils/Polars19.dat"
"Airfoils/Polars20.dat"
"Airfoils/Polars21.dat"
"Airfoils/Polars22.dat"
"Airfoils/Polars23.dat"
"Airfoils/Polars24.dat"
"Airfoils/Polars25.dat"
"Airfoils/Polars26.dat"
"Airfoils/Polars27.dat"
"Airfoils/Polars28.dat"
"Airfoils/Polars29.dat"
"Airfoils/Polars30.dat"
"Airfoils/Polars31.dat"
"Airfoils/Polars32.dat"
"Airfoils/Polars33.dat"
"Airfoils/Polars34.dat"
"Airfoils/Polars35.dat"
"Airfoils/Polars36.dat"
"Airfoils/Polars37.dat"
"Airfoils/Polars38.dat"
"Airfoils/Polars39.dat"
"Airfoils/Polars40.dat"
"Airfoils/Polars41.dat"
"Airfoils/Polars42.dat"
"Airfoils/Polars43.dat"
"Airfoils/Polars44.dat"
"Airfoils/Polars45.dat"
"Airfoils/Polars46.dat"
"Airfoils/Polars47.dat"
"Airfoils/Polars48.dat"
"Airfoils/Polars49.dat"
"Airfoils/Polars50.dat"
"Airfoils/Polars51.dat"
"Airfoils/Polars52.dat"
"Airfoils/Polars53.dat"
"Airfoils/Polars54.dat"
"Airfoils/Polars55.dat"
"Airfoils/Polars56.dat"
"Airfoils/Polars57.dat"
======  Rotor/Blade Properties  =====================================================================
True                   UseBlCm     - Include aerodynamic pitching moment in calculations?  (flag)
"AeroDyn15_blade.dat" ADBlFile(1) - Name of file containing distributed aerodynamic properties for Blade #1 (-)
"AeroDyn15_blade.dat" ADBlFile(2) - Name of file containing distributed aerodynamic properties for Blade #2 (-) [unused if NumBl < 2]
"AeroDyn15_blade.dat" ADBlFile(3) - Name of file containing distributed aerodynamic properties for Blade #3 (-) [unused if NumBl < 3]
======  Hub Properties ============================================================================== [used only when Buoyancy=True]
0.0   VolHub             - Hub volume (m^3)
0.0   HubCenBx           - Hub center of buoyancy x direction offset (m)
======  Nacelle Properties ========================================================================== [used only when Buoyancy=True]
0.0   VolNac             - Nacelle volume (m^3)
0,0,0 NacCenB            - Position of nacelle center of buoyancy from yaw bearing in nacelle coordinates (m)
======  Tail fin Aerodynamics ========================================================================
False         TFinAero           - Calculate tail fin aerodynamics model (flag)
"unused"      TFinFile           - Input file for tail fin aerodynamics [used only when TFinAero=True]
======  Tower Influence and Aerodynamics ============================================================= [used only when TwrPotent/=0, TwrShadow/=0, or TwrAero=True]
28   NumTwrNds         - Number of tower nodes used in the analysis  (-) [used only when TwrPotent/=0, TwrShadow/=0, or TwrAero=True]
TwrElev        TwrDiam        TwrCd          TwrTI         TwrCb    !TwrTI used only with TwrShadow=2, TwrCb used only with Buoyancy=True
(m)              (m)           (-)            (-)           (-)
  2.78000     5.47339     0.7     0.1     0.0
  3.57960     5.512205     0.7     0.1     0.0
 15.04881     5.06798     0.7     0.1     0.0
 26.51802     4.48884     0.7     0.1     0.0
 28.51702     4.313575     0.7     0.1     0.0
 30.81586     4.3125     0.7     0.1     0.0
 33.52849     4.3115     0.7     0.1     0.0
 36.32708     4.3105     0.7     0.1     0.0
 39.12566     4.3095     0.7     0.1     0.0
 41.92425     4.3085     0.7     0.1     0.0
 44.72284     4.3075     0.7     0.1     0.0
 47.52143     4.307     0.7     0.1     0.0
 50.32002     4.3065     0.7     0.1     0.0
 53.11861     4.3055     0.7     0.1     0.0
 55.91719     4.3045     0.7     0.1     0.0
 58.71578     4.3035     0.7     0.1     0.0
 61.51437     4.303     0.7     0.1     0.0
 64.11306     4.27543     0.7     0.1     0.0
 66.71175     4.24649     0.7     0.1     0.0
 69.31044     4.21756     0.7     0.1     0.0
 71.90913     4.18862     0.7     0.1     0.0
 74.50782     4.15968     0.7     0.1     0.0
 77.10650     4.13025     0.7     0.1     0.0
 79.70519     4.10131     0.7     0.1     0.0
 82.30388     4.07287     0.7     0.1     0.0
 84.90257     4.04444     0.7     0.1     0.0
 87.50126     4.026     0.7     0.1     0.0
 90.00000     4.036     0.7     0.1     0.0
======  Outputs  ====================================================================================
True          SumPrint            - Generate a summary file listing input options and interpolated properties to "<rootname>.AD.sum"?  (flag)
          0   NBlOuts             - Number of blade node outputs [0 - 9] (-)
          1,    8,   16,   24,   32,   40,   48,   56    BlOutNd             - Blade nodes for output [unused: NBlOuts=0; full nodal output below covers all blade nodes]
          0   NTwOuts             - Number of tower node outputs [0 - 9]  (-)
          1,          2,          6    TwOutNd             - [unused: NTwOuts=0]
                   OutList             - The next line(s) contains a list of output parameters.  See OutListParameters.xlsx for a listing of available output channels, (-)
"RtAeroFxh"
"RtAeroFyh"
"RtAeroFzh"
"RtAeroMxh"
"RtAeroMyh"
"RtAeroMzh"
"RtAeroPwr"
"RtArea"
END of input file (the word "END" must appear in the first 3 columns of this last OutList line)
---------------------- NODE OUTPUTS --------------------------------------------
          3   BldNd_BladesOut   - Blades to output
         99   BldNd_BlOutNd   - Blade nodes on each blade (currently unused)
              OutList     - The next line(s) contains a list of output parameters.
"Alpha"
"Cl"
"Cd"
"Vrel"
"Fx"
"Fy"
"DynP"
"Theta"
END of input file (the word "END" must appear in the first 3 columns of this last OutList line)
