------- AERODYN v15.00.* BLADE DEFINITION INPUT FILE -------------------------------------
AeroDyn blade input properties, created from Blade2OpenFAST.py on 03-Aug-2025 02:25:01
======  Blade Properties =================================================================
         44   NumBlNds           - Number of blade nodes used in the analysis (-)
  BlSpn            BlCrvAC         BlSwpAC          BlCrvAng         BlTwist           BlChord    BlAFID    BlCb    BlCenBn    BlCenBt
   (m)               (m)             (m)              (deg)           (deg)              (m)        (-)     (-)     (m)        (m)
0.000000E+00     0.000000E+00     0.000000E+00     4.010705E-02     9.999999E+00     3.009000E+00      1         0.0      0.0       0.0
9.000000E-01     6.300000E-04     1.880400E-03     2.219478E-01     9.499165E+00     2.856340E+00      1         0.0      0.0       0.0
2.248760E+00     1.226970E-02     1.513730E-02     8.092375E-01     2.451053E+01     3.006330E+00      1         0.0      0.0       0.0
2.867170E+00     2.256180E-02     2.857720E-02     1.001417E+00     2.407344E+01     3.087280E+00      2         0.0      0.0       0.0
3.598020E+00     3.605700E-02     4.225460E-02     9.528107E-01     2.344314E+01     3.175800E+00      3         0.0      0.0       0.0
4.497520E+00     4.898350E-02     5.752430E-02     6.542666E-01     2.252783E+01     3.267740E+00      4         0.0      0.0       0.0
5.453240E+00     5.689970E-02     1.508670E-01     1.042149E+00     2.137121E+01     3.350120E+00      5         0.0      0.0       0.0
6.521400E+00     8.815440E-02     2.036074E-01     2.011423E+00     1.991719E+01     3.424700E+00      6         0.0      0.0       0.0
7.645780E+00     1.345455E-01     2.604697E-01     1.957910E+00     1.826547E+01     3.485540E+00      6         0.0      0.0       0.0
8.882600E+00     1.671678E-01     3.058057E-01     6.731533E-01     1.637129E+01     3.533970E+00      7         0.0      0.0       0.0
1.023186E+01     1.614898E-01     3.202813E-01    -3.487264E-01     1.431000E+01     3.568720E+00      8         0.0      0.0       0.0
1.163733E+01     1.501858E-01     3.427950E-01    -4.478281E-01     1.216871E+01     3.589200E+00      9         0.0      0.0       0.0
1.309903E+01     1.391058E-01     3.548899E-01    -2.164671E-01     1.017439E+01     3.598070E+00     10         0.0      0.0       0.0
1.461694E+01     1.393643E-01     3.598962E-01    -4.042882E-01     8.458914E+00     3.599940E+00     11         0.0      0.0       0.0
1.624729E+01     1.152059E-01     2.574294E-01    -5.108333E-01     7.036850E+00     3.596480E+00     12         0.0      0.0       0.0
1.787764E+01     1.102928E-01     2.703444E-01    -4.639149E-01     5.986807E+00     3.582700E+00     13         0.0      0.0       0.0
1.956421E+01     8.776790E-02     2.891422E-01    -6.411408E-01     5.208971E+00     3.549400E+00     14         0.0      0.0       0.0
2.125078E+01     7.254730E-02     3.219444E-01    -7.765365E-01     4.671566E+00     3.486010E+00     15         0.0      0.0       0.0
2.299357E+01     4.077170E-02     3.316849E-01    -1.256410E+00     4.251587E+00     3.380080E+00     16         0.0      0.0       0.0
2.473636E+01    -3.886200E-03     3.180250E-01    -1.784511E+00     3.862503E+00     3.236390E+00     17         0.0      0.0       0.0
2.653537E+01    -7.017060E-02     2.801423E-01    -2.248492E+00     3.376847E+00     3.059280E+00     18         0.0      0.0       0.0
2.833438E+01    -1.450854E-01     2.603372E-01    -2.416273E+00     2.774113E+00     2.862830E+00     19         0.0      0.0       0.0
3.013338E+01    -2.219056E-01     2.374903E-01    -2.435731E+00     2.135213E+00     2.656360E+00     20         0.0      0.0       0.0
3.193239E+01    -2.980423E-01     1.755220E-01    -2.343521E+00     1.571829E+00     2.448250E+00     21         0.0      0.0       0.0
3.373140E+01    -3.690724E-01     1.349159E-01    -2.201237E+00     1.143566E+00     2.247330E+00     22         0.0      0.0       0.0
3.547419E+01    -4.342319E-01     1.193303E-01    -2.234037E+00     7.552672E-01     2.067240E+00     23         0.0      0.0       0.0
3.721698E+01    -5.049797E-01     1.105481E-01    -2.503477E+00     3.114198E-01     1.906310E+00     24         0.0      0.0       0.0
3.890355E+01    -5.837312E-01     1.117592E-01    -2.871148E+00    -7.501736E-02     1.772410E+00     25         0.0      0.0       0.0
4.059012E+01    -6.740111E-01     1.157359E-01    -3.230308E+00    -3.593706E-01     1.659310E+00     26         0.0      0.0       0.0
4.222047E+01    -7.704223E-01     1.285712E-01    -3.485888E+00    -6.665619E-01     1.564790E+00     27         0.0      0.0       0.0
4.385082E+01    -8.723928E-01     1.280797E-01    -3.765359E+00    -9.371240E-01     1.479110E+00     28         0.0      0.0       0.0
4.536873E+01    -9.766305E-01     1.060922E-01    -4.086407E+00    -1.193460E+00     1.401970E+00     29         0.0      0.0       0.0
4.683043E+01    -1.084610E+00     9.320970E-02    -4.376535E+00    -1.422471E+00     1.325820E+00     30         0.0      0.0       0.0
4.823590E+01    -1.195362E+00     7.569830E-02    -4.685203E+00    -1.658650E+00     1.246770E+00     30         0.0      0.0       0.0
4.958516E+01    -1.309543E+00     6.852880E-02    -4.997613E+00    -1.849135E+00     1.162090E+00     31         0.0      0.0       0.0
5.082198E+01    -1.420372E+00     6.202970E-02    -5.294355E+00    -2.045918E+00     1.074010E+00     32         0.0      0.0       0.0
5.194636E+01    -1.527127E+00     6.207320E-02    -5.502368E+00    -2.226405E+00     9.832200E-01     33         0.0      0.0       0.0
5.301452E+01    -1.630812E+00     6.210030E-02    -5.809232E+00    -2.397983E+00     8.855600E-01     34         0.0      0.0       0.0
5.397024E+01    -1.731408E+00     6.088420E-02    -6.095200E+00    -2.553129E+00     7.875200E-01     35         0.0      0.0       0.0
5.486974E+01    -1.828050E+00     5.835680E-02    -6.419584E+00    -2.701479E+00     6.848800E-01     36         0.0      0.0       0.0
5.560059E+01    -1.912670E+00     5.443560E-02    -6.635164E+00    -2.821479E+00     5.935600E-01     37         0.0      0.0       0.0
5.621900E+01    -1.984297E+00     5.382050E-02    -6.636033E+00    -2.928026E+00     5.101200E-01     38         0.0      0.0       0.0
5.631900E+01    -1.995879E+00     5.372100E-02    -4.386507E+00    -2.945255E+00     4.966270E-01     39         0.0      0.0       0.0
5.651400E+01    -1.995879E+00     5.372100E-02     0.000000E+00    -2.945255E+00     4.966270E-01     39         0.0      0.0       0.0
